raw_files/raw_files_9n/72Bus.raw
 0,    100.00, 33, 0, 0, 60.00       / October 01, 2013 15:59:49


    1,'Bus1',  16.5000,3,   1,   1,   1,1.04000,   0.0000
    2,'Bus 2',  18.0000,2,   1,   1,   1,1.02500,   9.3507
    3,'Bus 3',  13.8000,2,   1,   1,   1,1.02500,   5.1420
    4,'Bus 4', 230.0000,1,   1,   1,   1,1.02531,  -2.2174
    5,'Bus 5', 230.0000,1,   1,   1,   1,0.99972,  -3.6802
    6,'Bus 6', 230.0000,1,   1,   1,   1,1.01225,  -3.5666
    7,'Bus 7', 230.0000,1,   1,   1,   1,1.02683,   3.7961
    8,'Bus 8', 230.0000,1,   1,   1,   1,1.01727,   1.3373
    9,'Bus 9', 230.0000,1,   1,   1,   1,1.03269,   2.4448
    11,'Bus 11',16.5000,2,   1,   1,   1,1.04000,   0.0000
    12,'Bus 12',18.0000,2,   1,   1,   1,1.02500,   9.3507
    13,'Bus 13',13.8000,2,   1,   1,   1,1.02500,   5.1420
    14,'Bus 14',230.0000,1,   1,   1,   1,1.02531,  -2.2174
    15,'Bus 15',230.0000,1,   1,   1,   1,0.99972,  -3.6802
    16,'Bus 16',230.0000,1,   1,   1,   1,1.01225,  -3.5666
    17,'Bus 17',230.0000,1,   1,   1,   1,1.02683,   3.7961
    18,'Bus 18',230.0000,1,   1,   1,   1,1.01727,   1.3373
    19,'Bus 19',230.0000,1,   1,   1,   1,1.03269,   2.4448
    21,'Bus 21',16.5000,2,   1,   1,   1,1.04000,   0.0000
    22,'Bus 22',18.0000,2,   1,   1,   1,1.02500,   9.3507
    23,'Bus 23',13.8000,2,   1,   1,   1,1.02500,   5.1420
    24,'Bus 24',230.0000,1,   1,   1,   1,1.02531,  -2.2174
    25,'Bus 25',230.0000,1,   1,   1,   1,0.99972,  -3.6802
    26,'Bus 26',230.0000,1,   1,   1,   1,1.01225,  -3.5666
    27,'Bus 27',230.0000,1,   1,   1,   1,1.02683,   3.7961
    28,'Bus 28',230.0000,1,   1,   1,   1,1.01727,   1.3373
    29,'Bus 29',230.0000,1,   1,   1,   1,1.03269,   2.4448
    31,'Bus 31',16.5000,2,   1,   1,   1,1.04000,   0.0000
    32,'Bus 32',18.0000,2,   1,   1,   1,1.02500,   9.3507
    33,'Bus 33',13.8000,2,   1,   1,   1,1.02500,   5.1420
    34,'Bus 34',230.0000,1,   1,   1,   1,1.02531,  -2.2174
    35,'Bus 35',230.0000,1,   1,   1,   1,0.99972,  -3.6802
    36,'Bus 36',230.0000,1,   1,   1,   1,1.01225,  -3.5666
    37,'Bus 37',230.0000,1,   1,   1,   1,1.02683,   3.7961
    38,'Bus 38',230.0000,1,   1,   1,   1,1.01727,   1.3373
    39,'Bus 39',230.0000,1,   1,   1,   1,1.03269,   2.4448
    41,'Bus 41',16.5000,2,   1,   1,   1,1.04000,   0.0000
    42,'Bus 42',18.0000,2,   1,   1,   1,1.02500,   9.3507
    43,'Bus 43',13.8000,2,   1,   1,   1,1.02500,   5.1420
    44,'Bus 44',230.0000,1,   1,   1,   1,1.02531,  -2.2174
    45,'Bus 45',230.0000,1,   1,   1,   1,0.99972,  -3.6802
    46,'Bus 46',230.0000,1,   1,   1,   1,1.01225,  -3.5666
    47,'Bus 47',230.0000,1,   1,   1,   1,1.02683,   3.7961
    48,'Bus 48',230.0000,1,   1,   1,   1,1.01727,   1.3373
    49,'Bus 49',230.0000,1,   1,   1,   1,1.03269,   2.4448
    51,'Bus 51',16.5000,2,   1,   1,   1,1.04000,   0.0000
    52,'Bus 52',18.0000,2,   1,   1,   1,1.02500,   9.3507
    53,'Bus 53',13.8000,2,   1,   1,   1,1.02500,   5.1420
    54,'Bus 54',230.0000,1,   1,   1,   1,1.02531,  -2.2174
    55,'Bus 55',230.0000,1,   1,   1,   1,0.99972,  -3.6802
    56,'Bus 56',230.0000,1,   1,   1,   1,1.01225,  -3.5666
    57,'Bus 57',230.0000,1,   1,   1,   1,1.02683,   3.7961
    58,'Bus 58',230.0000,1,   1,   1,   1,1.01727,   1.3373
    59,'Bus 59',230.0000,1,   1,   1,   1,1.03269,   2.4448
    61,'Bus 61',16.5000,2,   1,   1,   1,1.04000,   0.0000
    62,'Bus 62',18.0000,2,   1,   1,   1,1.02500,   9.3507
    63,'Bus 63',13.8000,2,   1,   1,   1,1.02500,   5.1420
    64,'Bus 64',230.0000,1,   1,   1,   1,1.02531,  -2.2174
    65,'Bus 65',230.0000,1,   1,   1,   1,0.99972,  -3.6802
    66,'Bus 66',230.0000,1,   1,   1,   1,1.01225,  -3.5666
    67,'Bus 67',230.0000,1,   1,   1,   1,1.02683,   3.7961
    68,'Bus 68',230.0000,1,   1,   1,   1,1.01727,   1.3373
    69,'Bus 69',230.0000,1,   1,   1,   1,1.03269,   2.4448
    71,'Bus 71',16.5000,2,   1,   1,   1,1.04000,   0.0000
    72,'Bus 72',18.0000,2,   1,   1,   1,1.02500,   9.3507
    73,'Bus 73',13.8000,2,   1,   1,   1,1.02500,   5.1420
    74,'Bus 74',230.0000,1,   1,   1,   1,1.02531,  -2.2174
    75,'Bus 75',230.0000,1,   1,   1,   1,0.99972,  -3.6802
    76,'Bus 76',230.0000,1,   1,   1,   1,1.01225,  -3.5666
    77,'Bus 77',230.0000,1,   1,   1,   1,1.02683,   3.7961
    78,'Bus 78',230.0000,1,   1,   1,   1,1.01727,   1.3373
    79,'Bus 79',230.0000,1,   1,   1,   1,1.03269,   2.4448
0 / END OF BUS DATA, BEGIN LOAD DATA
    5,'1 ',1,   1,   1,   125.000,    50.000,     0.000,     0.000,     0.000,    -0.000,   1,1
    6,'1 ',1,   1,   1,   90.000,    30.000,     0.000,     0.000,     0.000,    -0.000,   1,1
    8,'1 ',1,   1,   1,   100.000,    35.000,     0.000,     0.000,     0.000,    -0.000,   1,1
    15,'1 ',1,   1,   1,   125.000,    50.000,     0.000,     0.000,     0.000,    -0.000,   1,1
    16,'1 ',1,   1,   1,   90.000,    30.000,     0.000,     0.000,     0.000,    -0.000,   1,1
    18,'1 ',1,   1,   1,   100.000,    35.000,     0.000,     0.000,     0.000,    -0.000,   1,1
    25,'1 ',1,   1,   1,   125.000,    50.000,     0.000,     0.000,     0.000,    -0.000,   1,1
    26,'1 ',1,   1,   1,   90.000,    30.000,     0.000,     0.000,     0.000,    -0.000,   1,1
    28,'1 ',1,   1,   1,   100.000,    35.000,     0.000,     0.000,     0.000,    -0.000,   1,1
    35,'1 ',1,   1,   1,   125.000,    50.000,     0.000,     0.000,     0.000,    -0.000,   1,1
    36,'1 ',1,   1,   1,   90.000,    30.000,     0.000,     0.000,     0.000,    -0.000,   1,1
    38,'1 ',1,   1,   1,   100.000,    35.000,     0.000,     0.000,     0.000,    -0.000,   1,1
    45,'1 ',1,   1,   1,   125.000,    50.000,     0.000,     0.000,     0.000,    -0.000,   1,1
    46,'1 ',1,   1,   1,   90.000,    30.000,     0.000,     0.000,     0.000,    -0.000,   1,1
    48,'1 ',1,   1,   1,   100.000,    35.000,     0.000,     0.000,     0.000,    -0.000,   1,1
    55,'1 ',1,   1,   1,   125.000,    50.000,     0.000,     0.000,     0.000,    -0.000,   1,1
    56,'1 ',1,   1,   1,   90.000,    30.000,     0.000,     0.000,     0.000,    -0.000,   1,1
    58,'1 ',1,   1,   1,   100.000,    35.000,     0.000,     0.000,     0.000,    -0.000,   1,1
    65,'1 ',1,   1,   1,   125.000,    50.000,     0.000,     0.000,     0.000,    -0.000,   1,1
    66,'1 ',1,   1,   1,   90.000,    30.000,     0.000,     0.000,     0.000,    -0.000,   1,1
    68,'1 ',1,   1,   1,   100.000,    35.000,     0.000,     0.000,     0.000,    -0.000,   1,1
    75,'1 ',1,   1,   1,   125.000,    50.000,     0.000,     0.000,     0.000,    -0.000,   1,1
    76,'1 ',1,   1,   1,   90.000,    30.000,     0.000,     0.000,     0.000,    -0.000,   1,1
    78,'1 ',1,   1,   1,   100.000,    35.000,     0.000,     0.000,     0.000,    -0.000,   1,1
0 / END OF LOAD DATA, BEGIN FIXED SHUNT DATA
0 / END OF FIXED SHUNT DATA, BEGIN GENERATOR DATA
    1,'1 ',    71.627,    27.915,  9900.000, -9900.000,1.04000,    0,   500.000,   0.00000,   1.00000,   0.00000,   0.00000,1.00000,1,  100.0,   450.000,     0.000,   1,1.0000,   0,1.0000,   0,1.0000,   0,1.0000,0, 1.0000
    2,'1 ',   163.000,     4.903,  9900.000, -9900.000,1.02500,    0,   250.000,   0.00000,   1.00000,   0.00000,   0.00000,1.00000,1,  100.0,   240.000,     0.000,   1,1.0000,   0,1.0000,   0,1.0000,   0,1.0000,0, 1.0000
    3,'1 ',    85.000,   -11.449,  9900.000, -9900.000,1.02500,    0,   100.000,   0.00000,   1.00000,   0.00000,   0.00000,1.00000,1,  100.0,    90.000,     0.000,   1,1.0000,   0,1.0000,   0,1.0000,   0,1.0000,0, 1.0000
    11,'1 ',    71.627,    27.915,  9900.000, -9900.000,1.04000,    0,   500.000,   0.00000,   1.00000,   0.00000,   0.00000,1.00000,1,  100.0,   450.000,     0.000,   1,1.0000,   0,1.0000,   0,1.0000,   0,1.0000,0, 1.0000
    12,'1 ',   163.000,     4.903,  9900.000, -9900.000,1.02500,    0,   250.000,   0.00000,   1.00000,   0.00000,   0.00000,1.00000,1,  100.0,   240.000,     0.000,   1,1.0000,   0,1.0000,   0,1.0000,   0,1.0000,0, 1.0000
    13,'1 ',    85.000,   -11.449,  9900.000, -9900.000,1.02500,    0,   100.000,   0.00000,   1.00000,   0.00000,   0.00000,1.00000,1,  100.0,    90.000,     0.000,   1,1.0000,   0,1.0000,   0,1.0000,   0,1.0000,0, 1.0000
    21,'1 ',    71.627,    27.915,  9900.000, -9900.000,1.04000,    0,   500.000,   0.00000,   1.00000,   0.00000,   0.00000,1.00000,1,  100.0,   450.000,     0.000,   1,1.0000,   0,1.0000,   0,1.0000,   0,1.0000,0, 1.0000
    22,'1 ',   163.000,     4.903,  9900.000, -9900.000,1.02500,    0,   250.000,   0.00000,   1.00000,   0.00000,   0.00000,1.00000,1,  100.0,   240.000,     0.000,   1,1.0000,   0,1.0000,   0,1.0000,   0,1.0000,0, 1.0000
    23,'1 ',    85.000,   -11.449,  9900.000, -9900.000,1.02500,    0,   100.000,   0.00000,   1.00000,   0.00000,   0.00000,1.00000,1,  100.0,    90.000,     0.000,   1,1.0000,   0,1.0000,   0,1.0000,   0,1.0000,0, 1.0000
    31,'1 ',    71.627,    27.915,  9900.000, -9900.000,1.04000,    0,   500.000,   0.00000,   1.00000,   0.00000,   0.00000,1.00000,1,  100.0,   450.000,     0.000,   1,1.0000,   0,1.0000,   0,1.0000,   0,1.0000,0, 1.0000
    32,'1 ',   163.000,     4.903,  9900.000, -9900.000,1.02500,    0,   250.000,   0.00000,   1.00000,   0.00000,   0.00000,1.00000,1,  100.0,   240.000,     0.000,   1,1.0000,   0,1.0000,   0,1.0000,   0,1.0000,0, 1.0000
    33,'1 ',    85.000,   -11.449,  9900.000, -9900.000,1.02500,    0,   100.000,   0.00000,   1.00000,   0.00000,   0.00000,1.00000,1,  100.0,    90.000,     0.000,   1,1.0000,   0,1.0000,   0,1.0000,   0,1.0000,0, 1.0000
    41,'1 ',    71.627,    27.915,  9900.000, -9900.000,1.04000,    0,   500.000,   0.00000,   1.00000,   0.00000,   0.00000,1.00000,1,  100.0,   450.000,     0.000,   1,1.0000,   0,1.0000,   0,1.0000,   0,1.0000,0, 1.0000
    42,'1 ',   163.000,     4.903,  9900.000, -9900.000,1.02500,    0,   250.000,   0.00000,   1.00000,   0.00000,   0.00000,1.00000,1,  100.0,   240.000,     0.000,   1,1.0000,   0,1.0000,   0,1.0000,   0,1.0000,0, 1.0000
    43,'1 ',    85.000,   -11.449,  9900.000, -9900.000,1.02500,    0,   100.000,   0.00000,   1.00000,   0.00000,   0.00000,1.00000,1,  100.0,    90.000,     0.000,   1,1.0000,   0,1.0000,   0,1.0000,   0,1.0000,0, 1.0000
    51,'1 ',    71.627,    27.915,  9900.000, -9900.000,1.04000,    0,   500.000,   0.00000,   1.00000,   0.00000,   0.00000,1.00000,1,  100.0,   450.000,     0.000,   1,1.0000,   0,1.0000,   0,1.0000,   0,1.0000,0, 1.0000
    52,'1 ',   163.000,     4.903,  9900.000, -9900.000,1.02500,    0,   250.000,   0.00000,   1.00000,   0.00000,   0.00000,1.00000,1,  100.0,   240.000,     0.000,   1,1.0000,   0,1.0000,   0,1.0000,   0,1.0000,0, 1.0000
    53,'1 ',    85.000,   -11.449,  9900.000, -9900.000,1.02500,    0,   100.000,   0.00000,   1.00000,   0.00000,   0.00000,1.00000,1,  100.0,    90.000,     0.000,   1,1.0000,   0,1.0000,   0,1.0000,   0,1.0000,0, 1.0000
    61,'1 ',    71.627,    27.915,  9900.000, -9900.000,1.04000,    0,   500.000,   0.00000,   1.00000,   0.00000,   0.00000,1.00000,1,  100.0,   450.000,     0.000,   1,1.0000,   0,1.0000,   0,1.0000,   0,1.0000,0, 1.0000
    62,'1 ',   163.000,     4.903,  9900.000, -9900.000,1.02500,    0,   250.000,   0.00000,   1.00000,   0.00000,   0.00000,1.00000,1,  100.0,   240.000,     0.000,   1,1.0000,   0,1.0000,   0,1.0000,   0,1.0000,0, 1.0000
    63,'1 ',    85.000,   -11.449,  9900.000, -9900.000,1.02500,    0,   100.000,   0.00000,   1.00000,   0.00000,   0.00000,1.00000,1,  100.0,    90.000,     0.000,   1,1.0000,   0,1.0000,   0,1.0000,   0,1.0000,0, 1.0000
    71,'1 ',    71.627,    27.915,  9900.000, -9900.000,1.04000,    0,   500.000,   0.00000,   1.00000,   0.00000,   0.00000,1.00000,1,  100.0,   450.000,     0.000,   1,1.0000,   0,1.0000,   0,1.0000,   0,1.0000,0, 1.0000
    72,'1 ',   163.000,     4.903,  9900.000, -9900.000,1.02500,    0,   250.000,   0.00000,   1.00000,   0.00000,   0.00000,1.00000,1,  100.0,   240.000,     0.000,   1,1.0000,   0,1.0000,   0,1.0000,   0,1.0000,0, 1.0000
    73,'1 ',    85.000,   -11.449,  9900.000, -9900.000,1.02500,    0,   100.000,   0.00000,   1.00000,   0.00000,   0.00000,1.00000,1,  100.0,    90.000,     0.000,   1,1.0000,   0,1.0000,   0,1.0000,   0,1.0000,0, 1.0000
0 / END OF GENERATOR DATA, BEGIN BRANCH DATA
    5,     4,'1 ', 0.01000, 0.06800,0.17600,   0.00,   0.00,   0.00,  0.00000,  0.00000,  0.00000,  0.00000,1,1,   0.0,   1,1.0000,   0,1.0000,   0,1.0000,   0,1.0000
    6,     4,'1 ', 0.01700, 0.09200,0.15800,   0.00,   0.00,   0.00,  0.00000,  0.00000,  0.00000,  0.00000,1,1,   0.0,   1,1.0000,   0,1.0000,   0,1.0000,   0,1.0000
    7,     5,'1 ', 0.03200, 0.16100,0.30600,   0.00,   0.00,   0.00,  0.00000,  0.00000,  0.00000,  0.00000,1,1,   0.0,   1,1.0000,   0,1.0000,   0,1.0000,   0,1.0000
    9,     6,'1 ', 0.03900, 0.17380,0.35800,   0.00,   0.00,   0.00,  0.00000,  0.00000,  0.00000,  0.00000,1,1,   0.0,   1,1.0000,   0,1.0000,   0,1.0000,   0,1.0000
    7,     8,'1 ', 0.00850, 0.05760,0.14900,   0.00,   0.00,   0.00,  0.00000,  0.00000,  0.00000,  0.00000,1,1,   0.0,   1,1.0000,   0,1.0000,   0,1.0000,   0,1.0000
    8,     9,'1 ', 0.01190, 0.10080,0.20900,   0.00,   0.00,   0.00,  0.00000,  0.00000,  0.00000,  0.00000,1,1,   0.0,   1,1.0000,   0,1.0000,   0,1.0000,   0,1.0000
    15,    14,'1 ', 0.01000, 0.06800,0.17600,   0.00,   0.00,   0.00,  0.00000,  0.00000,  0.00000,  0.00000,1,1,   0.0,   1,1.0000,   0,1.0000,   0,1.0000,   0,1.0000
    16,    14,'1 ', 0.01700, 0.09200,0.15800,   0.00,   0.00,   0.00,  0.00000,  0.00000,  0.00000,  0.00000,1,1,   0.0,   1,1.0000,   0,1.0000,   0,1.0000,   0,1.0000
    17,    15,'1 ', 0.03200, 0.16100,0.30600,   0.00,   0.00,   0.00,  0.00000,  0.00000,  0.00000,  0.00000,1,1,   0.0,   1,1.0000,   0,1.0000,   0,1.0000,   0,1.0000
    19,    16,'1 ', 0.03900, 0.17380,0.35800,   0.00,   0.00,   0.00,  0.00000,  0.00000,  0.00000,  0.00000,1,1,   0.0,   1,1.0000,   0,1.0000,   0,1.0000,   0,1.0000
    17,    18,'1 ', 0.00850, 0.05760,0.14900,   0.00,   0.00,   0.00,  0.00000,  0.00000,  0.00000,  0.00000,1,1,   0.0,   1,1.0000,   0,1.0000,   0,1.0000,   0,1.0000
    18,    19,'1 ', 0.01190, 0.10080,0.20900,   0.00,   0.00,   0.00,  0.00000,  0.00000,  0.00000,  0.00000,1,1,   0.0,   1,1.0000,   0,1.0000,   0,1.0000,   0,1.0000
    25,    24,'1 ', 0.01000, 0.06800,0.17600,   0.00,   0.00,   0.00,  0.00000,  0.00000,  0.00000,  0.00000,1,1,   0.0,   1,1.0000,   0,1.0000,   0,1.0000,   0,1.0000
    26,    24,'1 ', 0.01700, 0.09200,0.15800,   0.00,   0.00,   0.00,  0.00000,  0.00000,  0.00000,  0.00000,1,1,   0.0,   1,1.0000,   0,1.0000,   0,1.0000,   0,1.0000
    27,    25,'1 ', 0.03200, 0.16100,0.30600,   0.00,   0.00,   0.00,  0.00000,  0.00000,  0.00000,  0.00000,1,1,   0.0,   1,1.0000,   0,1.0000,   0,1.0000,   0,1.0000
    29,    26,'1 ', 0.03900, 0.17380,0.35800,   0.00,   0.00,   0.00,  0.00000,  0.00000,  0.00000,  0.00000,1,1,   0.0,   1,1.0000,   0,1.0000,   0,1.0000,   0,1.0000
    27,    28,'1 ', 0.00850, 0.05760,0.14900,   0.00,   0.00,   0.00,  0.00000,  0.00000,  0.00000,  0.00000,1,1,   0.0,   1,1.0000,   0,1.0000,   0,1.0000,   0,1.0000
    28,    29,'1 ', 0.01190, 0.10080,0.20900,   0.00,   0.00,   0.00,  0.00000,  0.00000,  0.00000,  0.00000,1,1,   0.0,   1,1.0000,   0,1.0000,   0,1.0000,   0,1.0000
    35,    34,'1 ', 0.01000, 0.06800,0.17600,   0.00,   0.00,   0.00,  0.00000,  0.00000,  0.00000,  0.00000,1,1,   0.0,   1,1.0000,   0,1.0000,   0,1.0000,   0,1.0000
    36,    34,'1 ', 0.01700, 0.09200,0.15800,   0.00,   0.00,   0.00,  0.00000,  0.00000,  0.00000,  0.00000,1,1,   0.0,   1,1.0000,   0,1.0000,   0,1.0000,   0,1.0000
    37,    35,'1 ', 0.03200, 0.16100,0.30600,   0.00,   0.00,   0.00,  0.00000,  0.00000,  0.00000,  0.00000,1,1,   0.0,   1,1.0000,   0,1.0000,   0,1.0000,   0,1.0000
    39,    36,'1 ', 0.03900, 0.17380,0.35800,   0.00,   0.00,   0.00,  0.00000,  0.00000,  0.00000,  0.00000,1,1,   0.0,   1,1.0000,   0,1.0000,   0,1.0000,   0,1.0000
    37,    38,'1 ', 0.00850, 0.05760,0.14900,   0.00,   0.00,   0.00,  0.00000,  0.00000,  0.00000,  0.00000,1,1,   0.0,   1,1.0000,   0,1.0000,   0,1.0000,   0,1.0000
    38,    39,'1 ', 0.01190, 0.10080,0.20900,   0.00,   0.00,   0.00,  0.00000,  0.00000,  0.00000,  0.00000,1,1,   0.0,   1,1.0000,   0,1.0000,   0,1.0000,   0,1.0000
    45,    44,'1 ', 0.01000, 0.06800,0.17600,   0.00,   0.00,   0.00,  0.00000,  0.00000,  0.00000,  0.00000,1,1,   0.0,   1,1.0000,   0,1.0000,   0,1.0000,   0,1.0000
    46,    44,'1 ', 0.01700, 0.09200,0.15800,   0.00,   0.00,   0.00,  0.00000,  0.00000,  0.00000,  0.00000,1,1,   0.0,   1,1.0000,   0,1.0000,   0,1.0000,   0,1.0000
    47,    45,'1 ', 0.03200, 0.16100,0.30600,   0.00,   0.00,   0.00,  0.00000,  0.00000,  0.00000,  0.00000,1,1,   0.0,   1,1.0000,   0,1.0000,   0,1.0000,   0,1.0000
    49,    46,'1 ', 0.03900, 0.17380,0.35800,   0.00,   0.00,   0.00,  0.00000,  0.00000,  0.00000,  0.00000,1,1,   0.0,   1,1.0000,   0,1.0000,   0,1.0000,   0,1.0000
    47,    48,'1 ', 0.00850, 0.05760,0.14900,   0.00,   0.00,   0.00,  0.00000,  0.00000,  0.00000,  0.00000,1,1,   0.0,   1,1.0000,   0,1.0000,   0,1.0000,   0,1.0000
    48,    49,'1 ', 0.01190, 0.10080,0.20900,   0.00,   0.00,   0.00,  0.00000,  0.00000,  0.00000,  0.00000,1,1,   0.0,   1,1.0000,   0,1.0000,   0,1.0000,   0,1.0000
    55,    54,'1 ', 0.01000, 0.06800,0.17600,   0.00,   0.00,   0.00,  0.00000,  0.00000,  0.00000,  0.00000,1,1,   0.0,   1,1.0000,   0,1.0000,   0,1.0000,   0,1.0000
    56,    54,'1 ', 0.01700, 0.09200,0.15800,   0.00,   0.00,   0.00,  0.00000,  0.00000,  0.00000,  0.00000,1,1,   0.0,   1,1.0000,   0,1.0000,   0,1.0000,   0,1.0000
    57,    55,'1 ', 0.03200, 0.16100,0.30600,   0.00,   0.00,   0.00,  0.00000,  0.00000,  0.00000,  0.00000,1,1,   0.0,   1,1.0000,   0,1.0000,   0,1.0000,   0,1.0000
    59,    56,'1 ', 0.03900, 0.17380,0.35800,   0.00,   0.00,   0.00,  0.00000,  0.00000,  0.00000,  0.00000,1,1,   0.0,   1,1.0000,   0,1.0000,   0,1.0000,   0,1.0000
    57,    58,'1 ', 0.00850, 0.05760,0.14900,   0.00,   0.00,   0.00,  0.00000,  0.00000,  0.00000,  0.00000,1,1,   0.0,   1,1.0000,   0,1.0000,   0,1.0000,   0,1.0000
    58,    59,'1 ', 0.01190, 0.10080,0.20900,   0.00,   0.00,   0.00,  0.00000,  0.00000,  0.00000,  0.00000,1,1,   0.0,   1,1.0000,   0,1.0000,   0,1.0000,   0,1.0000
    65,    64,'1 ', 0.01000, 0.06800,0.17600,   0.00,   0.00,   0.00,  0.00000,  0.00000,  0.00000,  0.00000,1,1,   0.0,   1,1.0000,   0,1.0000,   0,1.0000,   0,1.0000
    66,    64,'1 ', 0.01700, 0.09200,0.15800,   0.00,   0.00,   0.00,  0.00000,  0.00000,  0.00000,  0.00000,1,1,   0.0,   1,1.0000,   0,1.0000,   0,1.0000,   0,1.0000
    67,    65,'1 ', 0.03200, 0.16100,0.30600,   0.00,   0.00,   0.00,  0.00000,  0.00000,  0.00000,  0.00000,1,1,   0.0,   1,1.0000,   0,1.0000,   0,1.0000,   0,1.0000
    69,    66,'1 ', 0.03900, 0.17380,0.35800,   0.00,   0.00,   0.00,  0.00000,  0.00000,  0.00000,  0.00000,1,1,   0.0,   1,1.0000,   0,1.0000,   0,1.0000,   0,1.0000
    67,    68,'1 ', 0.00850, 0.05760,0.14900,   0.00,   0.00,   0.00,  0.00000,  0.00000,  0.00000,  0.00000,1,1,   0.0,   1,1.0000,   0,1.0000,   0,1.0000,   0,1.0000
    68,    69,'1 ', 0.01190, 0.10080,0.20900,   0.00,   0.00,   0.00,  0.00000,  0.00000,  0.00000,  0.00000,1,1,   0.0,   1,1.0000,   0,1.0000,   0,1.0000,   0,1.0000
    75,    74,'1 ', 0.01000, 0.06800,0.17600,   0.00,   0.00,   0.00,  0.00000,  0.00000,  0.00000,  0.00000,1,1,   0.0,   1,1.0000,   0,1.0000,   0,1.0000,   0,1.0000
    76,    74,'1 ', 0.01700, 0.09200,0.15800,   0.00,   0.00,   0.00,  0.00000,  0.00000,  0.00000,  0.00000,1,1,   0.0,   1,1.0000,   0,1.0000,   0,1.0000,   0,1.0000
    77,    75,'1 ', 0.03200, 0.16100,0.30600,   0.00,   0.00,   0.00,  0.00000,  0.00000,  0.00000,  0.00000,1,1,   0.0,   1,1.0000,   0,1.0000,   0,1.0000,   0,1.0000
    79,    76,'1 ', 0.03900, 0.17380,0.35800,   0.00,   0.00,   0.00,  0.00000,  0.00000,  0.00000,  0.00000,1,1,   0.0,   1,1.0000,   0,1.0000,   0,1.0000,   0,1.0000
    77,    78,'1 ', 0.00850, 0.05760,0.14900,   0.00,   0.00,   0.00,  0.00000,  0.00000,  0.00000,  0.00000,1,1,   0.0,   1,1.0000,   0,1.0000,   0,1.0000,   0,1.0000
    78,    79,'1 ', 0.01190, 0.10080,0.20900,   0.00,   0.00,   0.00,  0.00000,  0.00000,  0.00000,  0.00000,1,1,   0.0,   1,1.0000,   0,1.0000,   0,1.0000,   0,1.0000
    5,    25,'1 ', 0.00850, 0.05760,0.14900,   0.00,   0.00,   0.00,  0.00000,  0.00000,  0.00000,  0.00000,1,1,   0.0,   1,1.0000,   0,1.0000,   0,1.0000,   0,1.0000
    6,    65,'1 ', 0.00850, 0.05760,0.14900,   0.00,   0.00,   0.00,  0.00000,  0.00000,  0.00000,  0.00000,1,1,   0.0,   1,1.0000,   0,1.0000,   0,1.0000,   0,1.0000
    15,    55,'1 ', 0.00850, 0.05760,0.14900,   0.00,   0.00,   0.00,  0.00000,  0.00000,  0.00000,  0.00000,1,1,   0.0,   1,1.0000,   0,1.0000,   0,1.0000,   0,1.0000
    16,    75,'1 ', 0.00850, 0.05760,0.14900,   0.00,   0.00,   0.00,  0.00000,  0.00000,  0.00000,  0.00000,1,1,   0.0,   1,1.0000,   0,1.0000,   0,1.0000,   0,1.0000
    26,    45,'1 ', 0.00850, 0.05760,0.14900,   0.00,   0.00,   0.00,  0.00000,  0.00000,  0.00000,  0.00000,1,1,   0.0,   1,1.0000,   0,1.0000,   0,1.0000,   0,1.0000
    35,    46,'1 ', 0.00850, 0.05760,0.14900,   0.00,   0.00,   0.00,  0.00000,  0.00000,  0.00000,  0.00000,1,1,   0.0,   1,1.0000,   0,1.0000,   0,1.0000,   0,1.0000
    36,    56,'1 ', 0.00850, 0.05760,0.14900,   0.00,   0.00,   0.00,  0.00000,  0.00000,  0.00000,  0.00000,1,1,   0.0,   1,1.0000,   0,1.0000,   0,1.0000,   0,1.0000
    66,    76,'1 ', 0.00850, 0.05760,0.14900,   0.00,   0.00,   0.00,  0.00000,  0.00000,  0.00000,  0.00000,1,1,   0.0,   1,1.0000,   0,1.0000,   0,1.0000,   0,1.0000
0 / END OF BRANCH DATA, BEGIN TRANSFORMER DATA
    4,    1,    0,'1 ',1,1,1,  0.00000,  0.00000,2,'        ',1,   1,1.0000,   0,1.0000,   0,1.0000,   0,1.0000
 0.00000, 0.05760, 100.00
1.00000,  0.000,   0.000,   0.00,   0.00,   0.00,0,     0, 1.50000, 0.51000, 1.50000, 0.51000,159, 0, 0.00000, 0.00000
1.00000,  0.000
    2,    7,    0,'1 ',1,1,1,  0.00000,  0.00000,2,'        ',1,   1,1.0000,   0,1.0000,   0,1.0000,   0,1.0000
 0.00000, 0.06250, 100.00
1.00000,  0.000,   0.000,   0.00,   0.00,   0.00,0,     2, 1.10000, 0.90000, 1.00000, 0.99000, 33, 0, 0.00000, 0.00000
1.00000,  0.000
    9,    3,    0,'1 ',1,1,1,  0.00000,  0.00000,2,'        ',1,   1,1.0000,   0,1.0000,   0,1.0000,   0,1.0000
 0.00000, 0.05860, 100.00
1.00000,  0.000,   0.000,   0.00,   0.00,   0.00,0,     9, 1.10000, 0.90000, 1.00000, 0.99000, 33, 0, 0.00000, 0.00000
1.00000,  0.000
    14,    11,    0,'1 ',1,1,1,  0.00000,  0.00000,2,'        ',1,   1,1.0000,   0,1.0000,   0,1.0000,   0,1.0000
 0.00000, 0.05760, 100.00
1.00000,  0.000,   0.000,   0.00,   0.00,   0.00,0,     0, 1.50000, 0.51000, 1.50000, 0.51000,159, 0, 0.00000, 0.00000
1.00000,  0.000
    12,    17,    0,'1 ',1,1,1,  0.00000,  0.00000,2,'        ',1,   1,1.0000,   0,1.0000,   0,1.0000,   0,1.0000
 0.00000, 0.06250, 100.00
1.00000,  0.000,   0.000,   0.00,   0.00,   0.00,0,     2, 1.10000, 0.90000, 1.00000, 0.99000, 33, 0, 0.00000, 0.00000
1.00000,  0.000
    19,    13,    0,'1 ',1,1,1,  0.00000,  0.00000,2,'        ',1,   1,1.0000,   0,1.0000,   0,1.0000,   0,1.0000
 0.00000, 0.05860, 100.00
1.00000,  0.000,   0.000,   0.00,   0.00,   0.00,0,     9, 1.10000, 0.90000, 1.00000, 0.99000, 33, 0, 0.00000, 0.00000
1.00000,  0.000
    24,    21,    0,'1 ',1,1,1,  0.00000,  0.00000,2,'        ',1,   1,1.0000,   0,1.0000,   0,1.0000,   0,1.0000
 0.00000, 0.05760, 100.00
1.00000,  0.000,   0.000,   0.00,   0.00,   0.00,0,     0, 1.50000, 0.51000, 1.50000, 0.51000,159, 0, 0.00000, 0.00000
1.00000,  0.000
    22,    27,    0,'1 ',1,1,1,  0.00000,  0.00000,2,'        ',1,   1,1.0000,   0,1.0000,   0,1.0000,   0,1.0000
 0.00000, 0.06250, 100.00
1.00000,  0.000,   0.000,   0.00,   0.00,   0.00,0,     2, 1.10000, 0.90000, 1.00000, 0.99000, 33, 0, 0.00000, 0.00000
1.00000,  0.000
    29,    23,    0,'1 ',1,1,1,  0.00000,  0.00000,2,'        ',1,   1,1.0000,   0,1.0000,   0,1.0000,   0,1.0000
 0.00000, 0.05860, 100.00
1.00000,  0.000,   0.000,   0.00,   0.00,   0.00,0,     9, 1.10000, 0.90000, 1.00000, 0.99000, 33, 0, 0.00000, 0.00000
1.00000,  0.000
    34,    31,    0,'1 ',1,1,1,  0.00000,  0.00000,2,'        ',1,   1,1.0000,   0,1.0000,   0,1.0000,   0,1.0000
 0.00000, 0.05760, 100.00
1.00000,  0.000,   0.000,   0.00,   0.00,   0.00,0,     0, 1.50000, 0.51000, 1.50000, 0.51000,159, 0, 0.00000, 0.00000
1.00000,  0.000
    32,    37,    0,'1 ',1,1,1,  0.00000,  0.00000,2,'        ',1,   1,1.0000,   0,1.0000,   0,1.0000,   0,1.0000
 0.00000, 0.06250, 100.00
1.00000,  0.000,   0.000,   0.00,   0.00,   0.00,0,     2, 1.10000, 0.90000, 1.00000, 0.99000, 33, 0, 0.00000, 0.00000
1.00000,  0.000
    39,    33,    0,'1 ',1,1,1,  0.00000,  0.00000,2,'        ',1,   1,1.0000,   0,1.0000,   0,1.0000,   0,1.0000
 0.00000, 0.05860, 100.00
1.00000,  0.000,   0.000,   0.00,   0.00,   0.00,0,     9, 1.10000, 0.90000, 1.00000, 0.99000, 33, 0, 0.00000, 0.00000
1.00000,  0.000
    44,    41,    0,'1 ',1,1,1,  0.00000,  0.00000,2,'        ',1,   1,1.0000,   0,1.0000,   0,1.0000,   0,1.0000
 0.00000, 0.05760, 100.00
1.00000,  0.000,   0.000,   0.00,   0.00,   0.00,0,     0, 1.50000, 0.51000, 1.50000, 0.51000,159, 0, 0.00000, 0.00000
1.00000,  0.000
    42,    47,    0,'1 ',1,1,1,  0.00000,  0.00000,2,'        ',1,   1,1.0000,   0,1.0000,   0,1.0000,   0,1.0000
 0.00000, 0.06250, 100.00
1.00000,  0.000,   0.000,   0.00,   0.00,   0.00,0,     2, 1.10000, 0.90000, 1.00000, 0.99000, 33, 0, 0.00000, 0.00000
1.00000,  0.000
    49,    43,    0,'1 ',1,1,1,  0.00000,  0.00000,2,'        ',1,   1,1.0000,   0,1.0000,   0,1.0000,   0,1.0000
 0.00000, 0.05860, 100.00
1.00000,  0.000,   0.000,   0.00,   0.00,   0.00,0,     9, 1.10000, 0.90000, 1.00000, 0.99000, 33, 0, 0.00000, 0.00000
1.00000,  0.000
    54,    51,    0,'1 ',1,1,1,  0.00000,  0.00000,2,'        ',1,   1,1.0000,   0,1.0000,   0,1.0000,   0,1.0000
 0.00000, 0.05760, 100.00
1.00000,  0.000,   0.000,   0.00,   0.00,   0.00,0,     0, 1.50000, 0.51000, 1.50000, 0.51000,159, 0, 0.00000, 0.00000
1.00000,  0.000
    52,    57,    0,'1 ',1,1,1,  0.00000,  0.00000,2,'        ',1,   1,1.0000,   0,1.0000,   0,1.0000,   0,1.0000
 0.00000, 0.06250, 100.00
1.00000,  0.000,   0.000,   0.00,   0.00,   0.00,0,     2, 1.10000, 0.90000, 1.00000, 0.99000, 33, 0, 0.00000, 0.00000
1.00000,  0.000
    59,    53,    0,'1 ',1,1,1,  0.00000,  0.00000,2,'        ',1,   1,1.0000,   0,1.0000,   0,1.0000,   0,1.0000
 0.00000, 0.05860, 100.00
1.00000,  0.000,   0.000,   0.00,   0.00,   0.00,0,     9, 1.10000, 0.90000, 1.00000, 0.99000, 33, 0, 0.00000, 0.00000
1.00000,  0.000
    64,    61,    0,'1 ',1,1,1,  0.00000,  0.00000,2,'        ',1,   1,1.0000,   0,1.0000,   0,1.0000,   0,1.0000
 0.00000, 0.05760, 100.00
1.00000,  0.000,   0.000,   0.00,   0.00,   0.00,0,     0, 1.50000, 0.51000, 1.50000, 0.51000,159, 0, 0.00000, 0.00000
1.00000,  0.000
    62,    67,    0,'1 ',1,1,1,  0.00000,  0.00000,2,'        ',1,   1,1.0000,   0,1.0000,   0,1.0000,   0,1.0000
 0.00000, 0.06250, 100.00
1.00000,  0.000,   0.000,   0.00,   0.00,   0.00,0,     2, 1.10000, 0.90000, 1.00000, 0.99000, 33, 0, 0.00000, 0.00000
1.00000,  0.000
    69,    63,    0,'1 ',1,1,1,  0.00000,  0.00000,2,'        ',1,   1,1.0000,   0,1.0000,   0,1.0000,   0,1.0000
 0.00000, 0.05860, 100.00
1.00000,  0.000,   0.000,   0.00,   0.00,   0.00,0,     9, 1.10000, 0.90000, 1.00000, 0.99000, 33, 0, 0.00000, 0.00000
1.00000,  0.000
    74,    71,    0,'1 ',1,1,1,  0.00000,  0.00000,2,'        ',1,   1,1.0000,   0,1.0000,   0,1.0000,   0,1.0000
 0.00000, 0.05760, 100.00
1.00000,  0.000,   0.000,   0.00,   0.00,   0.00,0,     0, 1.50000, 0.51000, 1.50000, 0.51000,159, 0, 0.00000, 0.00000
1.00000,  0.000
    72,    77,    0,'1 ',1,1,1,  0.00000,  0.00000,2,'        ',1,   1,1.0000,   0,1.0000,   0,1.0000,   0,1.0000
 0.00000, 0.06250, 100.00
1.00000,  0.000,   0.000,   0.00,   0.00,   0.00,0,     2, 1.10000, 0.90000, 1.00000, 0.99000, 33, 0, 0.00000, 0.00000
1.00000,  0.000
    79,    73,    0,'1 ',1,1,1,  0.00000,  0.00000,2,'        ',1,   1,1.0000,   0,1.0000,   0,1.0000,   0,1.0000
 0.00000, 0.05860, 100.00
1.00000,  0.000,   0.000,   0.00,   0.00,   0.00,0,     9, 1.10000, 0.90000, 1.00000, 0.99000, 33, 0, 0.00000, 0.00000
1.00000,  0.000
0 / END OF TRANSFORMER DATA, BEGIN AREA DATA
   1,    0,     0.000,     1.000,'1           '
0 / END OF AREA DATA, BEGIN TWO-TERMINAL DC DATA
0 / END OF TWO-TERMINAL DC DATA, BEGIN VOLTAGE SOURCE CONVERTER DATA
0 / END OF VOLTAGE SOURCE CONVERTER DATA, BEGIN IMPEDANCE CORRECTION DATA
0 / END OF IMPEDANCE CORRECTION DATA, BEGIN MULTI-TERMINAL DC DATA
0 / END OF MULTI-TERMINAL DC DATA, BEGIN MULTI-SECTION LINE DATA
0 / END OF MULTI-SECTION LINE DATA, BEGIN ZONE DATA
   1,'1       '
0 / END OF ZONE DATA, BEGIN INTER-AREA TRANSFER DATA
0 / END OF INTER-AREA TRANSFER DATA, BEGIN OWNER DATA
    1,'1'
0 / END OF OWNER DATA, BEGIN FACTS CONTROL DEVICE DATA
0 / END OF FACTS CONTROL DEVICE DATA, BEGIN SWITCHED SHUNT DATA
0 /END OF SWITCHED SHUNT DATA, BEGIN GNE DEVICE DATA
0 /END OF GNE DEVICE DATA
Q
